@<TRIPOS>MOLECULE
*****
 13 13 0 0 0
SMALL
GASTEIGER

@<TRIPOS>ATOM
      1 C           0.2217    1.2121   -0.0231 C.ar    1  UNL1       -0.0444
      2 C           1.6169    1.2034    0.0196 C.ar    1  UNL1       -0.0605
      3 C           2.3063   -0.0091    0.0475 C.ar    1  UNL1       -0.0617
      4 C           1.6049   -1.2144    0.0187 C.ar    1  UNL1       -0.0605
      5 C           0.2097   -1.2091   -0.0260 C.ar    1  UNL1       -0.0444
      6 C          -0.4859    0.0050   -0.0366 C.ar    1  UNL1        0.0518
      7 C          -1.9185    0.0112   -0.0407 C.1     1  UNL1        0.0992
      8 N          -3.0799    0.0151   -0.0310 N.1     1  UNL1       -0.1909
      9 H          -0.3074    2.1631   -0.0386 H       1  UNL1        0.0630
     10 H           2.1667    2.1415    0.0372 H       1  UNL1        0.0618
     11 H           3.3929   -0.0146    0.0932 H       1  UNL1        0.0618
     12 H           2.1449   -2.1582    0.0368 H       1  UNL1        0.0618
     13 H          -0.3290   -2.1544   -0.0451 H       1  UNL1        0.0630
@<TRIPOS>BOND
     1     1     2   ar
     2     1     6   ar
     3     1     9    1
     4     2     3   ar
     5     2    10    1
     6     3     4   ar
     7     3    11    1
     8     4     5   ar
     9     4    12    1
    10     5     6   ar
    11     5    13    1
    12     6     7    1
    13     7     8    3
