@<TRIPOS>MOLECULE
Benzonitrile HF/STO-3G rough geometry optimization
 13 13 0 0 0
SMALL
GASTEIGER

@<TRIPOS>ATOM
      1 C           0.0901    1.2128   -0.0000 C.ar    1  UNL1       -0.0444
      2 C           1.4774    1.2062    0.0000 C.ar    1  UNL1       -0.0605
      3 C           2.1715   -0.0000    0.0000 C.ar    1  UNL1       -0.0617
      4 C           1.4773   -1.2063    0.0000 C.ar    1  UNL1       -0.0605
      5 C           0.0901   -1.2127   -0.0000 C.ar    1  UNL1       -0.0444
      6 C          -0.6083    0.0000   -0.0000 C.ar    1  UNL1        0.0518
      7 C          -2.0374    0.0001    0.0000 C.1     1  UNL1        0.0992
      8 N          -3.1909   -0.0000   -0.0000 N.1     1  UNL1       -0.1909
      9 H          -0.4586    2.1448   -0.0000 H       1  UNL1        0.0630
     10 H           2.0179    2.1438    0.0000 H       1  UNL1        0.0618
     11 H           3.2540   -0.0001    0.0000 H       1  UNL1        0.0618
     12 H           2.0178   -2.1439    0.0000 H       1  UNL1        0.0618
     13 H          -0.4587   -2.1447   -0.0000 H       1  UNL1        0.0630
@<TRIPOS>BOND
     1     1     2   ar
     2     1     6   ar
     3     1     9    1
     4     2     3   ar
     5     2    10    1
     6     3     4   ar
     7     3    11    1
     8     4     5   ar
     9     4    12    1
    10     5     6   ar
    11     5    13    1
    12     6     7    1
    13     7     8    3
